LTspice 26.0.1 for Windows
Circuit: C:\Users\HP OMEN\OneDrive\Desktop\gradproject\components level sim\hardware_faithful_simulator\hardware_faithful_simulator\workspace\session_20260224_014728_bpf_hp_fix\netlists\receiver.cir
Start Time: Tue Feb 24 01:47:28 2026
Options:reltol=0.001 abstol=1e-12 vntol=1e-6
solver = Normal
Maximum thread count: 8
tnom = 27
temp = 27
method = trap
Instance "xdcdc:M1": Length shorter than recommended for a level 1 MOSFET.
Direct Newton iteration failed to find operating point.
Starting Gmin stepping
Gmin stepping failed to find operating point. Use".option gminsteps=0" to skip all Gmin stepping.
Starting source stepping with srcstepmethod=0
Starting source stepping with srcstepmethod=1
Source stepping failed to find operating point. Use ".options srcsteps=0" to skip all source stepping.
Starting Gmin stepping level 2
Gmin stepping level 2 failed to find operating point. Use".option gminsteps=0" to skip all Gmin stepping.
Starting source stepping with srcstepmethod=1, level 2
Starting source stepping with srcstepmethod=0, level 2
Source stepping level 2 failed to find operating point. Use ".options srcsteps=0" to skip all source stepping.
Pseudo Transient succeeded in finding the operating point at 2.17023 s
Total elapsed time: 15.121 seconds.

Files loaded:
C:\Users\HP OMEN\OneDrive\Desktop\gradproject\components level sim\hardware_faithful_simulator\hardware_faithful_simulator\workspace\session_20260224_014728_bpf_hp_fix\netlists\receiver.cir

v_ina_rms: RMS(V(ina_out) )=1.68273111412 FROM 0.005 TO 0.01
v_bpf_rms: RMS(V(bpf_out) )=1.64765638308 FROM 0.005 TO 0.01
v_bpf_pp: PP(V(bpf_out) )=0.025128364563 FROM 0.005 TO 0.01
v_sc_avg: AVG(V(sc_anode) )=0.00182984867919 FROM 0.005 TO 0.01
v_dcdc_avg: AVG(V(dcdc_out) )=0.599035442906 FROM 0.005 TO 0.01
