LTspice 26.0.1 for Windows
Circuit: C:\Users\HP OMEN\OneDrive\Desktop\gradproject\components level sim\hardware_faithful_simulator\hardware_faithful_simulator\workspace\session_20260224_014129_bpf_fix_test\netlists\receiver.cir
Start Time: Tue Feb 24 01:41:30 2026
Options:reltol=0.001 abstol=1e-12 vntol=1e-6
solver = Normal
Maximum thread count: 8
tnom = 27
temp = 27
method = trap
Instance "xdcdc:M1": Length shorter than recommended for a level 1 MOSFET.
Direct Newton iteration failed to find operating point.
Starting Gmin stepping
Gmin stepping succeeded in finding the operating point.

Total elapsed time: 3.164 seconds.

Files loaded:
C:\Users\HP OMEN\OneDrive\Desktop\gradproject\components level sim\hardware_faithful_simulator\hardware_faithful_simulator\workspace\session_20260224_014129_bpf_fix_test\netlists\receiver.cir

v_ina_rms: RMS(V(ina_out) )=1.69451043234 FROM 0.0005 TO 0.001
v_bpf_rms: RMS(V(bpf_out) )=1.64624304819 FROM 0.0005 TO 0.001
v_bpf_pp: PP(V(bpf_out) )=0.0342794656754 FROM 0.0005 TO 0.001
v_sc_avg: AVG(V(sc_anode) )=0.00319896933438 FROM 0.0005 TO 0.001
v_dcdc_avg: AVG(V(dcdc_out) )=0.601039581756 FROM 0.0005 TO 0.001
