LTspice 26.0.1 for Windows
Circuit: C:\Users\HP OMEN\OneDrive\Desktop\gradproject\components level sim\hardware_faithful_simulator\hardware_faithful_simulator\workspace\session_20260224_014451_ber_fix_test\netlists\receiver.cir
Start Time: Tue Feb 24 01:44:52 2026
Options:reltol=0.001 abstol=1e-12 vntol=1e-6
solver = Normal
Maximum thread count: 8
tnom = 27
temp = 27
method = trap
Instance "xdcdc:M1": Length shorter than recommended for a level 1 MOSFET.
Direct Newton iteration failed to find operating point.
Starting Gmin stepping
Gmin stepping succeeded in finding the operating point.

Total elapsed time: 10.263 seconds.

Files loaded:
C:\Users\HP OMEN\OneDrive\Desktop\gradproject\components level sim\hardware_faithful_simulator\hardware_faithful_simulator\workspace\session_20260224_014451_ber_fix_test\netlists\receiver.cir

v_ina_rms: RMS(V(ina_out) )=1.68273091542 FROM 0.005 TO 0.01
v_bpf_rms: RMS(V(bpf_out) )=1.64952973446 FROM 0.005 TO 0.01
v_bpf_pp: PP(V(bpf_out) )=0.029040813446 FROM 0.005 TO 0.01
v_sc_avg: AVG(V(sc_anode) )=0.00183167360199 FROM 0.005 TO 0.01
v_dcdc_avg: AVG(V(dcdc_out) )=0.599044179669 FROM 0.005 TO 0.01
